
**** 10/05/19 18:56:04 ****** PSpice 17.2.0 (March 2016) ****** ID# 0 ********

 ** Profile: "SCHEMATIC1-test"  [ F:\RLC_METER_PROJECT\RCL_meter-PSpiceFiles\SCHEMATIC1\test.sim ] 


 ****     CIRCUIT DESCRIPTION


******************************************************************************




** Creating circuit file "test.cir" 
** WARNING: THIS AUTOMATICALLY GENERATED FILE MAY BE OVERWRITTEN BY SUBSEQUENT SIMULATIONS

*Libraries: 
* Profile Libraries :
* Local Libraries :
.LIB "../../../rcl_meter-pspicefiles/rcl_meter.lib" 
* From [PSPICE NETLIST] section of F:\cadence\Cadence\SPB_Data\cdssetup\OrCAD_PSpice\17.2.0\PSpice.ini file:
.lib "nom.lib" 

*Analysis directives: 
.TRAN  0 1000ns 0 
.OPTIONS ADVCONV
.PROBE64 V(alias(*)) I(alias(*)) W(alias(*)) D(alias(*)) NOISE(alias(*)) 
.INC "..\SCHEMATIC1.net" 



**** INCLUDING SCHEMATIC1.net ****
* source RCL_METER
X_X1         0 N04074 QZS10MEG
R_R1         0 N03235  120k TC=0,0 
R_R2         N03235 N03440  95k TC=0,0 
C_C1         N02987 N03235  180p  TC=0,0 
C_C2         0 N02987  180p  TC=0,0 
R_R3         0 N02987  6k TC=0,0 
Q_Q1         N03440 N03235 N02987 QbreakN 
V_V1         N03440 0 12
C_C3         N04074 N03235  1n  TC=0,0 

**** RESUMING test.cir ****
.END

ERROR(ORPSIM-15142): Node N04074 is floating

ERROR(ORPSIM-15142): Node X_X1.12 is floating

ERROR(ORPSIM-15142): Node X_X1.3 is floating
