
**** 10/05/19 01:22:00 ****** PSpice 17.2.0 (March 2016) ****** ID# 0 ********

 ** Profile: "SCHEMATIC1-Test_Working principls"  [ F:\RLC_METER_PROJECT\RCL_meter-PSpiceFiles\SCHEMATIC1\Test_Working principls.sim 


 ****     CIRCUIT DESCRIPTION


******************************************************************************




** Creating circuit file "Test_Working principls.cir" 
** WARNING: THIS AUTOMATICALLY GENERATED FILE MAY BE OVERWRITTEN BY SUBSEQUENT SIMULATIONS

*Libraries: 
* Profile Libraries :
* Local Libraries :
* From [PSPICE NETLIST] section of F:\cadence\Cadence\SPB_Data\cdssetup\OrCAD_PSpice\17.2.0\PSpice.ini file:
.lib "nom.lib" 

*Analysis directives: 
.TRAN  0 1000ms 0 
.OPTIONS ADVCONV
.PROBE64 V(alias(*)) I(alias(*)) W(alias(*)) D(alias(*)) NOISE(alias(*)) 
.INC "..\SCHEMATIC1.net" 



**** INCLUDING SCHEMATIC1.net ****
* source RCL_METER
R_R1         N00118 0  1k TC=0,0 
V_V1         N00118 0  AC 0
+SIN 0 5 20 0 0 0

**** RESUMING "Test_Working principls.cir" ****
.END

**** 10/05/19 01:22:00 ****** PSpice 17.2.0 (March 2016) ****** ID# 0 ********

 ** Profile: "SCHEMATIC1-Test_Working principls"  [ F:\RLC_METER_PROJECT\RCL_meter-PSpiceFiles\SCHEMATIC1\Test_Working principls.sim 


 ****     INITIAL TRANSIENT SOLUTION       TEMPERATURE =   27.000 DEG C


******************************************************************************



 NODE   VOLTAGE     NODE   VOLTAGE     NODE   VOLTAGE     NODE   VOLTAGE


(N00118)    0.0000 




    VOLTAGE SOURCE CURRENTS
    NAME         CURRENT

    V_V1         0.000E+00

    TOTAL POWER DISSIPATION   0.00E+00  WATTS



          JOB CONCLUDED

**** 10/05/19 01:22:00 ****** PSpice 17.2.0 (March 2016) ****** ID# 0 ********

 ** Profile: "SCHEMATIC1-Test_Working principls"  [ F:\RLC_METER_PROJECT\RCL_meter-PSpiceFiles\SCHEMATIC1\Test_Working principls.sim 


 ****     JOB STATISTICS SUMMARY


******************************************************************************



  Total job time (using Solver 1)   =         .02
